07_CYME/Bellhaven_ret_01291204.sxst_DSS/Elements/Lines.dss
New Line.259005097 Phases= 3 Bus1=259005092.1.2.3 Bus2=259005099.1.2.3 Length=20.05  units=m  Spacing=8'-ARM-NON-CENTER-POST-3PH wires=['1/0-ACSR-B-6X1' '1/0-ACSR-B-6X1' '1/0-ACSR-B-6X1' '1/0-ACSR-B-6X1']
New Line.260784253 Bus1=260784250.3     Bus2=260784255.3     LineCode=1/0-AL-HMWPECN-15KV Phases= 1 Length=55.64  units=m enable=yes
New Line.384045894 Phases= 3 Bus1=259004973.1.2.3 Bus2=384045889.1.2.3 Length=124.50 units=m  Spacing=HORIZ-LINE-POST-3PH wires=['336-ACSR-WP-18X1' '336-ACSR-WP-18X1' '336-ACSR-WP-18X1' '1/0-ACSR-B-6X1']
New Line.258840250 Phases= 3 Bus1=258840247.1.2.3 Bus2=258840252.1.2.3 Length=84.99  units=m  Spacing=8'-ARM-NON-CENTER-POST-3PH wires=['336-ACSR-B-18X1' '336-ACSR-B-18X1' '336-ACSR-B-18X1' '2-CU-B-7']
New Line.471228156 Phases= 3 Bus1=258840462.1.2.3 Bus2=471228158.1.2.3 Length=1.53   units=m  Spacing=8'-ARM-STANDARD-3PH wires=['2-ACSR-B-6X1' '2-ACSR-B-6X1' '2-ACSR-B-6X1' '1/0-ACSR-B-6X1']
New Line.263511707 Bus1=258840200.1.2.3 Bus2=263511709.1.2.3 LineCode=1/0-AL-HMWPECN-15KV Phases= 3 Length=1.52   units=m enable=yes
New Line.264304369 Bus1=261107771.1     Bus2=264304367.1     LineCode=1/0-AL-TRXLPELCJ-15KV Phases= 1 Length=95.62  units=m enable=yes
New Line.263761831 Phases= 3 Bus1=258840011.1.2.3 Bus2=263761833.1.2.3 Length=1.53   units=m  Spacing=8'-ARM-NON-CENTER-POST-3PH wires=['336-ACSR-B-18X1' '336-ACSR-B-18X1' '336-ACSR-B-18X1' '2-CU-B-7']
New Line.258839956 Phases= 3 Bus1=258839953.1.2.3 Bus2=258839958.1.2.3 Length=45.44  units=m  Spacing=8'-ARM-NON-CENTER-POST-3PH wires=['336-ACSR-B-18X1' '336-ACSR-B-18X1' '336-ACSR-B-18X1' '1/0-ACSR-B-6X1']
New Line.258850643 Phases= 3 Bus1=258850638.1.2.3 Bus2=258850645.1.2.3 Length=151.90 units=m  Spacing=HORIZ-LINE-POST-3PH wires=['336-ACSR-B-18X1' '336-ACSR-B-18X1' '336-ACSR-B-18X1' '1/0-ACSR-B-6X1']
New Line.263514821 Bus1=258850618.1.2.3 Bus2=263514823.1.2.3 LineCode=1/0-AL-TRXLPELCJ-15KV Phases= 3 Length=1.53   units=m enable=yes
New Line.258850589 Phases= 3 Bus1=258850586.1.2.3 Bus2=258850591.1.2.3 Length=30.52  units=m  Spacing=8'-ARM-NON-CENTER-POST-3PH wires=['1/0-ACSR-B-6X1' '1/0-ACSR-B-6X1' '1/0-ACSR-B-6X1' '1/0-ACSR-B-6X1']
New Line.263511712 Bus1=263511709.1.2.3 Bus2=260745482.1.2.3 LineCode=1/0-AL-HMWPECN-15KV Phases= 3 Length=19.99  units=m enable=yes
New Line.263515091 Phases= 3 Bus1=258851212.1.2.3 Bus2=263515093.1.2.3 Length=1.52   units=m  Spacing=8'-ARM-NON-CENTER-POST-3PH wires=['2-ACSR-B-6X1' '2-ACSR-B-6X1' '2-ACSR-B-6X1' '1/0-ACSR-B-6X1']
New Line.258851296 Phases= 3 Bus1=258851293.1.2.3 Bus2=258851298.1.2.3 Length=12.22  units=m  Spacing=8'-ARM-NON-CENTER-POST-3PH wires=['2-ACSR-B-6X1' '2-ACSR-B-6X1' '2-ACSR-B-6X1' '2-ACSR-B-6X1']
New Line.264285924 Bus1=261002710.2     Bus2=264285922.2     LineCode=1/0-AL-TRXLPELCJ-15KV Phases= 1 Length=66.32  units=m enable=yes
New Line.258839884 Phases= 3 Bus1=258839881.1.2.3 Bus2=258839886.1.2.3 Length=70.21  units=m  Spacing=8'-ARM-NON-CENTER-POST-3PH wires=['336-ACSR-B-18X1' '336-ACSR-B-18X1' '336-ACSR-B-18X1' '1/0-ACSR-B-6X1']
New Line.261002694 Bus1=261002695.1     Bus2=261002696.1     LineCode=1/0-AL-TRXLPELCJ-15KV Phases= 1 Length=23.09  units=m enable=yes
New Line.263511752 Phases= 1 Bus1=258840297.1     Bus2=263511754.1     Length=1.52   units=m  Spacing=VERTICAL-1-PH-60-1PH wires=['2-ACSR-B-6X1' '1/0-ACSR-B-6X1']
New Line.258840327 Phases= 3 Bus1=258840324.1.2.3 Bus2=258840329.1.2.3 Length=34.04  units=m  Spacing=8'-ARM-NON-CENTER-POST-3PH wires=['1/0-ACSR-WP-6X1' '1/0-ACSR-WP-6X1' '1/0-ACSR-WP-6X1' '1/0-ACSR-B-6X1']
New Line.258850927 Phases= 3 Bus1=258850924.1.2.3 Bus2=258850929.1.2.3 Length=18.89  units=m  Spacing=8'-ARM-NON-CENTER-POST-3PH wires=['2-ACSR-B-6X1' '2-ACSR-B-6X1' '2-ACSR-B-6X1' '2-ACSR-B-6X1']
New Line.263973888 Phases= 3 Bus1=258850970.1.2.3 Bus2=263973890.1.2.3 Length=1.52   units=m  Spacing=8'-ARM-NON-CENTER-POST-3PH wires=['336-ACSR-WP-18X1' '336-ACSR-WP-18X1' '336-ACSR-WP-18X1' '1/0-ACSR-B-6X1']
New Line.259121513 Phases= 3 Bus1=259121514.1.2.3 Bus2=259121515.1.2.3 Length=44.43  units=m  Spacing=8'-ARM-STANDARD-3PH wires=['2-ACSR-B-6X1' '2-ACSR-B-6X1' '2-ACSR-B-6X1' '2-ACSR-B-6X1']
New Line.264316524 Bus1=261002700.1     Bus2=264316522.1     LineCode=1/0-AL-TRXLPELCJ-15KV Phases= 1 Length=58.04  units=m enable=yes
New Line.263515127 Phases= 2 Bus1=258840190.1.3   Bus2=263515129.1.3   Length=1.53   units=m  Spacing=8'-ARM-STANDARD-2PH wires=['6-CU-B-S' '6-CU-B-S' '6-CU-B-S']
New Line.264292384 Bus1=260972090.1     Bus2=264292382.1     LineCode=1/0-AL-TRXLPELCJ-15KV Phases= 1 Length=74.86  units=m enable=yes
New Line.258840065 Phases= 3 Bus1=258840062.1.2.3 Bus2=258840067.1.2.3 Length=23.77  units=m  Spacing=8'-ARM-NON-CENTER-POST-3PH wires=['336-ACSR-B-18X1' '336-ACSR-B-18X1' '336-ACSR-B-18X1' '2-CU-B-7']
New Line.258850693 Phases= 3 Bus1=258850690.1.2.3 Bus2=258850695.1.2.3 Length=34.05  units=m  Spacing=HORIZ-LINE-POST-3PH wires=['336-ACSR-B-18X1' '336-ACSR-B-18X1' '336-ACSR-B-18X1' '1/0-ACSR-B-6X1']
New Line.264254789 Bus1=260745334.1.2.3 Bus2=264254787.1.2.3 LineCode=1/0-AL-HMWPECN-15KV Phases= 3 Length=24.64  units=m enable=yes
New Line.263514992 Bus1=260745382.1.2.3 Bus2=263514994.1.2.3 LineCode=1/0-AL-HMWPECN-15KV Phases= 3 Length=1.53   units=m enable=yes
New Line.258850601 Phases= 3 Bus1=258850596.1.2.3 Bus2=258850603.1.2.3 Length=46.84  units=m  Spacing=8'-ARM-NON-CENTER-POST-3PH wires=['1/0-ACSR-B-6X1' '1/0-ACSR-B-6X1' '1/0-ACSR-B-6X1' '1/0-ACSR-B-6X1']
New Line.259172464 Phases= 3 Bus1=259172465.1.2.3 Bus2=259172460.1.2.3 Length=29.74  units=m  Spacing=8'-ARM-STANDARD-3PH wires=['1/0-ACSR-B-6X1' '1/0-ACSR-B-6X1' '1/0-ACSR-B-6X1' '1/0-ACSR-B-6X1']
New Line.263701642 Bus1=263701639.2     Bus2=260972100.2     LineCode=1/0-AL-TRXLPELCJ-15KV Phases= 1 Length=592.60 units=m enable=yes
New Line.259207081 Phases= 3 Bus1=259207082.1.2.3 Bus2=258851446.1.2.3 Length=10.38  units=m  Spacing=8'-ARM-STANDARD-3PH wires=['1/0-ACSR-B-6X1' '1/0-ACSR-B-6X1' '1/0-ACSR-B-6X1' '1/0-ACSR-B-6X1']
New Line.258839961 Phases= 3 Bus1=258839958.1.2.3 Bus2=258839963.1.2.3 Length=15.44  units=m  Spacing=8'-ARM-STANDARD-3PH wires=['2-ACSR-B-6X1' '2-ACSR-B-6X1' '2-ACSR-B-6X1' '2-ACSR-B-6X1']
New Line.258839899 Phases= 3 Bus1=258839896.1.2.3 Bus2=258839901.1.2.3 Length=23.98  units=m  Spacing=8'-ARM-NON-CENTER-POST-3PH wires=['336-ACSR-B-18X1' '336-ACSR-B-18X1' '336-ACSR-B-18X1' '1/0-ACSR-B-6X1']
New Line.258840406 Phases= 3 Bus1=258840403.1.2.3 Bus2=258840408.1.2.3 Length=58.54  units=m  Spacing=8'-ARM-NON-CENTER-POST-3PH wires=['336-ACSR-WP-18X1' '336-ACSR-WP-18X1' '336-ACSR-WP-18X1' '1/0-ACSR-B-6X1']
New Line.258840290 Phases= 3 Bus1=258840287.1.2.3 Bus2=258840292.1.2.3 Length=18.54  units=m  Spacing=8'-ARM-NON-CENTER-POST-3PH wires=['336-ACSR-B-18X1' '336-ACSR-B-18X1' '336-ACSR-B-18X1' '2-CU-B-7']
New Line.258850698 Phases= 3 Bus1=258850695.1.2.3 Bus2=258850700.1.2.3 Length=26.91  units=m  Spacing=HORIZ-LINE-POST-3PH wires=['336-ACSR-B-18X1' '336-ACSR-B-18X1' '336-ACSR-B-18X1' '1/0-ACSR-B-6X1']
New Line.258851331 Phases= 1 Bus1=258851328.3     Bus2=258851333.3     Length=36.89  units=m  Spacing=VERTICAL-1-PH-60-1PH wires=['2-ACSR-B-6X1' '2-ACSR-B-6X1']
New Line.263862865 Bus1=259371848.1     Bus2=263862867.1     LineCode=1/0-AL-TRXLPELCJ-15KV Phases= 1 Length=1.52   units=m enable=yes
New Line.258840098 Phases= 1 Bus1=258840093.2     Bus2=258840100.2     Length=32.84  units=m  Spacing=VERTICAL-1-PH-60-1PH wires=['4-CU-B-7' '2-CU-B-7']
New Line.259586299 Phases= 1 Bus1=258851232.3     Bus2=259586301.3     Length=64.26  units=m  Spacing=VERTICAL-1-PH-104-1PH wires=['2-ACSR-B-6X1' '2-ACSR-B-6X1']
New Line.263515046 Bus1=258851091.3     Bus2=263515048.3     LineCode=1/0-AL-HMWPECN-15KV Phases= 1 Length=1.52   units=m enable=yes
New Line.259176597 Phases= 3 Bus1=258850618.1.2.3 Bus2=259121514.1.2.3 Length=28.81  units=m  Spacing=8'-ARM-STANDARD-3PH wires=['2-ACSR-B-6X1' '2-ACSR-B-6X1' '2-ACSR-B-6X1' '2-ACSR-B-6X1']
New Line.258839904 Phases= 3 Bus1=258839901.1.2.3 Bus2=258839906.1.2.3 Length=22.41  units=m  Spacing=8'-ARM-NON-CENTER-POST-3PH wires=['336-ACSR-WP-18X1' '336-ACSR-WP-18X1' '336-ACSR-WP-18X1' '1/0-ACSR-B-6X1']
New Line.263701624 Bus1=263701621.3     Bus2=260972111.3     LineCode=1/0-AL-TRXLPELCJ-15KV Phases= 1 Length=165.70 units=m enable=yes
New Line.258840539 Phases= 1 Bus1=258840536.3     Bus2=258840541.3     Length=65.10  units=m  Spacing=VERTICAL-1-PH-60-1PH wires=['2-ACSR-B-6X1' '1/0-ACSR-B-6X1']
New Line.258850668 Phases= 3 Bus1=258850665.1.2.3 Bus2=258850670.1.2.3 Length=80.59  units=m  Spacing=HORIZ-LINE-POST-3PH wires=['336-ACSR-B-18X1' '336-ACSR-B-18X1' '336-ACSR-B-18X1' '1/0-ACSR-B-6X1']
New Line.264292393 Bus1=260972096.2     Bus2=264292391.2     LineCode=1/0-AL-TRXLPELCJ-15KV Phases= 1 Length=206.00 units=m enable=yes
New Line.258840110 Phases= 1 Bus1=258840086.2     Bus2=258840112.2     Length=23.11  units=m  Spacing=VERTICAL-1-PH-60-1PH wires=['2-ACSR-B-6X1' '1/0-ACSR-B-6X1']
New Line.263701606 Bus1=263701603.2     Bus2=261031178.2     LineCode=1/0-AL-TRXLPELCJ-15KV Phases= 1 Length=731.40 units=m enable=yes
New Line.258840105 Phases= 1 Bus1=258840100.2     Bus2=258840107.2     Length=61.03  units=m  Spacing=VERTICAL-1-PH-60-1PH wires=['2-ACSR-B-6X1' '2-ACSR-B-6X1']
New Line.472684297 Bus1=472684299.1.2.3 Bus2=261124289.1.2.3 LineCode=1/0-AL-TRXLPELCJ-25KV Phases= 3 Length=1.51   units=m enable=yes
New Line.263661074 Phases= 3 Bus1=259005076.1.2.3 Bus2=263661076.1.2.3 Length=1.52   units=m  Spacing=8'-ARM-STANDARD-3PH wires=['1/0-ACSR-B-6X1' '1/0-ACSR-B-6X1' '1/0-ACSR-B-6X1' '1/0-ACSR-B-6X1']
New Line.258851173 Phases= 1 Bus1=258851170.1     Bus2=258851175.1     Length=22.51  units=m  Spacing=VERTICAL-1-PH-60-1PH wires=['1/0-ACSR-B-6X1' '1/0-ACSR-B-6X1']
New Line.263730591 Bus1=263730588.2     Bus2=261002735.2     LineCode=1/0-AL-TRXLPELCJ-15KV Phases= 1 Length=376.10 units=m enable=yes
New Line.263996171 Phases= 3 Bus1=259005082.1.2.3 Bus2=263996173.1.2.3 Length=1.52   units=m  Spacing=8'-ARM-STANDARD-3PH wires=['2-ACSR-B-6X1' '2-ACSR-B-6X1' '2-ACSR-B-6X1' '2-ACSR-B-6X1']
New Line.263511734 Phases= 3 Bus1=258840252.1.2.3 Bus2=263511736.1.2.3 Length=1.53   units=m  Spacing=8'-ARM-NON-CENTER-POST-3PH wires=['2-ACSR-B-6X1' '2-ACSR-B-6X1' '2-ACSR-B-6X1' '1/0-ACSR-B-6X1']
New Line.258850567 Phases= 3 Bus1=258850559.1.2.3 Bus2=258850569.1.2.3 Length=42.59  units=m  Spacing=HORIZ-LINE-POST-3PH wires=['336-ACSR-B-18X1' '336-ACSR-B-18X1' '336-ACSR-B-18X1' '1/0-ACSR-B-6X1']
New Line.258851252 Phases= 3 Bus1=258851249.1.2.3 Bus2=258851254.1.2.3 Length=50.46  units=m  Spacing=8'-ARM-NON-CENTER-POST-3PH wires=['2-ACSR-B-6X1' '2-ACSR-B-6X1' '2-ACSR-B-6X1' '2-ACSR-B-6X1']
New Line.258851353 Phases= 2 Bus1=258851348.1.3   Bus2=258851355.1.3   Length=93.98  units=m  Spacing=8'-ARM-STANDARD-2PH wires=['6-CU-B-S' '6-CU-B-S' '2-CU-B-7']
New Line.258850658 Phases= 3 Bus1=258850655.1.2.3 Bus2=258850660.1.2.3 Length=103.40 units=m  Spacing=HORIZ-LINE-POST-3PH wires=['336-ACSR-B-18X1' '336-ACSR-B-18X1' '336-ACSR-B-18X1' '1/0-ACSR-B-6X1']
New Line.258840208 Phases= 3 Bus1=258840209.1.2.3 Bus2=258840210.1.2.3 Length=20.35  units=m  Spacing=8'-ARM-NON-CENTER-POST-3PH wires=['336-ACSR-B-18X1' '336-ACSR-B-18X1' '336-ACSR-B-18X1' '2-CU-B-7']
New Line.264494230 Phases= 3 Bus1=264494227.1.2.3 Bus2=258840297.1.2.3 Length=38.23  units=m  Spacing=8'-ARM-NON-CENTER-POST-3PH wires=['336-ACSR-B-18X1' '336-ACSR-B-18X1' '336-ACSR-B-18X1' '2-CU-B-7']
New Line.264530189 Phases= 1 Bus1=264530186.1     Bus2=259312123.1     Length=25.99  units=m  Spacing=VERTICAL-1-PH-104-1PH wires=['1/0-ACSR-B-6X1' '1/0-ACSR-B-6X1']
New Line.259004993 Phases= 3 Bus1=259004995.1.2.3 Bus2=259004990.1.2.3 Length=120.80 units=m  Spacing=HORIZ-LINE-POST-3PH wires=['336-ACSR-WP-18X1' '336-ACSR-WP-18X1' '336-ACSR-WP-18X1' '1/0-ACSR-B-6X1']
New Line.259357192 Phases= 3 Bus1=259357184.1.2.3 Bus2=259357188.1.2.3 Length=8.44   units=m  Spacing=8'-ARM-NON-CENTER-POST-3PH wires=['1/0-ACSR-WP-6X1' '1/0-ACSR-WP-6X1' '1/0-ACSR-WP-6X1' '2-ACSR-B-6X1']
New Line.263730582 Bus1=263730579.2     Bus2=261002716.2     LineCode=1/0-AL-TRXLPELCJ-15KV Phases= 1 Length=119.20 units=m enable=yes
New Line.258850574 Phases= 3 Bus1=258850569.1.2.3 Bus2=258850576.1.2.3 Length=12.69  units=m  Spacing=8'-ARM-NON-CENTER-POST-3PH wires=['2-ACSR-B-6X1' '2-ACSR-B-6X1' '2-ACSR-B-6X1' '2-ACSR-B-6X1']
New Line.260987677 Bus1=260745346.1.2.3 Bus2=260987679.1.2.3 LineCode=1/0-AL-TRXLPELCJ-15KV Phases= 3 Length=11.64  units=m enable=yes
New Line.258850636 Phases= 3 Bus1=258850633.1.2.3 Bus2=258850638.1.2.3 Length=19.53  units=m  Spacing=HORIZ-LINE-POST-3PH wires=['336-ACSR-B-18X1' '336-ACSR-B-18X1' '336-ACSR-B-18X1' '1/0-ACSR-B-6X1']
New Line.259005049 Phases= 3 Bus1=259005051.1.2.3 Bus2=259005041.1.2.3 Length=116.30 units=m  Spacing=8'-ARM-STANDARD-3PH wires=['336-ACSR-B-18X1' '336-ACSR-B-18X1' '336-ACSR-B-18X1' '1/0-ACSR-B-6X1']
New Line.263511662 Phases= 3 Bus1=258839921.1.2.3 Bus2=263511664.1.2.3 Length=1.52   units=m  Spacing=8'-ARM-NON-CENTER-POST-3PH wires=['2-ACSR-B-6X1' '2-ACSR-B-6X1' '2-ACSR-B-6X1' '2-ACSR-B-6X1']
New Line.263515136 Phases= 2 Bus1=258851376.1.2   Bus2=263515138.1.2   Length=1.53   units=m  Spacing=8'-ARM-STANDARD-2PH wires=['6-CU-B-S' '6-CU-B-S' '2-CU-B-7']
New Line.258850521 Phases= 3 Bus1=258850518.1.2.3 Bus2=258850523.1.2.3 Length=21.99  units=m  Spacing=8'-ARM-NON-CENTER-POST-3PH wires=['336-ACSR-WP-18X1' '336-ACSR-WP-18X1' '336-ACSR-WP-18X1' '1/0-ACSR-WP-6X1']
New Line.259005044 Phases= 1 Bus1=259005041.2     Bus2=259005046.2     Length=32.92  units=m  Spacing=VERTICAL-1-PH-60-1PH wires=['2-ACSR-B-6X1' '2-ACSR-B-6X1']
New Line.263515042 Phases= 1 Bus1=263515039.3     Bus2=258851064.3     Length=69.23  units=m  Spacing=VERTICAL-1-PH-60-1PH wires=['2-ACSR-B-6X1' '2-ACSR-B-6X1']
New Line.258851230 Phases= 1 Bus1=258851227.3     Bus2=258851232.3     Length=67.69  units=m  Spacing=VERTICAL-1-PH-60-1PH wires=['2-ACSR-B-6X1' '2-ACSR-B-6X1']
New Line.263514997 Bus1=263514994.1.2.3 Bus2=260745387.1.2.3 LineCode=1/0-AL-HMWPECN-15KV Phases= 3 Length=12.44  units=m enable=yes
New Line.261031157 Bus1=261031154.1     Bus2=261031159.1     LineCode=1/0-AL-TRXLPELCJ-15KV Phases= 1 Length=206.70 units=m enable=yes
New Line.259005056 Phases= 3 Bus1=258850975.1.2.3 Bus2=259005051.1.2.3 Length=31.61  units=m  Spacing=8'-ARM-STANDARD-3PH wires=['336-ACSR-WP-18X1' '336-ACSR-WP-18X1' '336-ACSR-WP-18X1' '1/0-ACSR-WP-6X1']
New Line.258839894 Phases= 3 Bus1=258839891.1.2.3 Bus2=258839896.1.2.3 Length=67.37  units=m  Spacing=8'-ARM-NON-CENTER-POST-3PH wires=['336-ACSR-B-18X1' '336-ACSR-B-18X1' '336-ACSR-B-18X1' '1/0-ACSR-B-6X1']
New Line.258851346 Phases= 2 Bus1=258851343.1.3   Bus2=258851348.1.3   Length=218.40 units=m  Spacing=8'-ARM-STANDARD-2PH wires=['6-CU-B-S' '6-CU-B-S' '2-CU-B-7']
New Line.263514983 Bus1=258850929.1.2.3 Bus2=263514985.1.2.3 LineCode=1/0-AL-HMWPECN-15KV Phases= 3 Length=1.52   units=m enable=yes
New Line.259005085 Phases= 3 Bus1=259005082.1.2.3 Bus2=259005087.1.2.3 Length=115.60 units=m  Spacing=8'-ARM-STANDARD-3PH wires=['1/0-ACSR-B-6X1' '1/0-ACSR-B-6X1' '1/0-ACSR-B-6X1' '1/0-ACSR-B-6X1']
New Line.258851425 Phases= 1 Bus1=258851417.1     Bus2=258851427.1     Length=93.27  units=m  Spacing=VERTICAL-1-PH-60-1PH wires=['1/0-ACSR-WP-6X1' '2-ACSR-B-6X1']
New Line.258840125 Phases= 2 Bus1=258840122.1.2   Bus2=258840127.1.2   Length=92.03  units=m  Spacing=8'-ARM-STANDARD-2PH wires=['4-CU-B-7' '4-CU-B-7' '1/0-ACSR-B-6X1']
New Line.263514898 Phases= 3 Bus1=263514895.1.2.3 Bus2=258850912.1.2.3 Length=17.76  units=m  Spacing=8'-ARM-NON-CENTER-POST-3PH wires=['2-ACSR-B-6X1' '2-ACSR-B-6X1' '2-ACSR-B-6X1' '2-ACSR-B-6X1']
New Line.264494193 Phases= 3 Bus1=264494190.1.2.3 Bus2=258840000.1.2.3 Length=100.10 units=m  Spacing=8'-ARM-NON-CENTER-POST-3PH wires=['336-ACSR-B-18X1' '336-ACSR-B-18X1' '336-ACSR-B-18X1' '2-CU-B-7']
New Line.258850579 Phases= 3 Bus1=258850569.1.2.3 Bus2=258850581.1.2.3 Length=24.37  units=m  Spacing=8'-ARM-NON-CENTER-POST-3PH wires=['336-ACSR-B-18X1' '336-ACSR-B-18X1' '336-ACSR-B-18X1' '1/0-ACSR-B-6X1']
New Line.259500286 Phases= 3 Bus1=258840393.1.2.3 Bus2=258840397.1.2.3 Length=17.14  units=m  Spacing=8'-ARM-NON-CENTER-POST-3PH wires=['336-ACSR-WP-18X1' '336-ACSR-WP-18X1' '336-ACSR-WP-18X1' '1/0-ACSR-B-6X1']
New Line.258840305 Phases= 3 Bus1=258840302.1.2.3 Bus2=258840307.1.2.3 Length=78.50  units=m  Spacing=8'-ARM-NON-CENTER-POST-3PH wires=['336-ACSR-B-18X1' '336-ACSR-B-18X1' '336-ACSR-B-18X1' '2-CU-B-7']
New Line.260784288 Bus1=260784285.3     Bus2=260784290.3     LineCode=1/0-AL-HMWPECN-15KV Phases= 1 Length=34.40  units=m enable=yes
New Line.263515006 Phases= 3 Bus1=263515003.1.2.3 Bus2=258850982.1.2.3 Length=69.08  units=m  Spacing=8'-ARM-NON-CENTER-POST-3PH wires=['2-ACSR-B-6X1' '2-ACSR-B-6X1' '2-ACSR-B-6X1' '2-ACSR-B-6X1']
New Line.260972119 Bus1=260972116.3     Bus2=260972080.3     LineCode=1/0-AL-TRXLPELCJ-15KV Phases= 1 Length=127.60 units=m enable=yes
New Line.258840120 Phases= 2 Bus1=258840079.1.2   Bus2=258840122.1.2   Length=28.91  units=m  Spacing=8'-ARM-STANDARD-2PH wires=['4-CU-B-7' '4-CU-B-7' '1/0-ACSR-B-6X1']
New Line.258851168 Phases= 3 Bus1=258851160.1.2.3 Bus2=258851170.1.2.3 Length=45.14  units=m  Spacing=8'-ARM-NON-CENTER-POST-3PH wires=['2-ACSR-B-6X1' '2-ACSR-B-6X1' '2-ACSR-B-6X1' '1/0-ACSR-B-6X1']
New Line.260784303 Bus1=260784300.3     Bus2=260784305.3     LineCode=1/0-AL-HMWPECN-15KV Phases= 1 Length=65.59  units=m enable=yes
New Line.258840428 Phases= 3 Bus1=258840425.1.2.3 Bus2=258840430.1.2.3 Length=53.03  units=m  Spacing=8'-ARM-NON-CENTER-POST-3PH wires=['336-ACSR-WP-18X1' '336-ACSR-WP-18X1' '336-ACSR-WP-18X1' '1/0-ACSR-B-6X1']
New Line.264259411 Bus1=260784225.1.2.3 Bus2=264259413.1.2.3 LineCode=1/0-AL-HMWPECN-15KV Phases= 3 Length=1.51   units=m enable=yes
New Line.263514844 Bus1=263514841.1.2.3 Bus2=260745329.1.2.3 LineCode=1/0-AL-HMWPECN-15KV Phases= 3 Length=32.41  units=m enable=yes
New Line.258840423 Phases= 3 Bus1=258840413.1.2.3 Bus2=258840425.1.2.3 Length=61.67  units=m  Spacing=8'-ARM-NON-CENTER-POST-3PH wires=['336-ACSR-WP-18X1' '336-ACSR-WP-18X1' '336-ACSR-WP-18X1' '1/0-ACSR-B-6X1']
New Line.258851326 Phases= 2 Bus1=258851323.1.3   Bus2=258851328.1.3   Length=56.06  units=m  Spacing=8'-ARM-STANDARD-2PH wires=['6-CU-B-S' '6-CU-B-S' '2-CU-B-7']
New Line.258851136 Phases= 3 Bus1=258851133.1.2.3 Bus2=258851138.1.2.3 Length=24.80  units=m  Spacing=8'-ARM-NON-CENTER-POST-3PH wires=['2-ACSR-B-6X1' '2-ACSR-B-6X1' '2-ACSR-B-6X1' '1/0-ACSR-B-6X1']
New Line.258851281 Phases= 3 Bus1=258851278.1.2.3 Bus2=258851283.1.2.3 Length=40.25  units=m  Spacing=8'-ARM-NON-CENTER-POST-3PH wires=['2-ACSR-B-6X1' '2-ACSR-B-6X1' '2-ACSR-B-6X1' '2-ACSR-B-6X1']
New Line.466987568 Bus1=466987565.1.2.3 Bus2=260745407.1.2.3 LineCode=1/0-AL-HMWPECN-15KV Phases= 3 Length=12.70  units=m enable=yes
New Line.263701619 Bus1=258851446.3     Bus2=263701621.3     LineCode=1/0-AL-TRXLPELCJ-15KV Phases= 1 Length=1.52   units=m enable=yes
New Line.258839919 Phases= 3 Bus1=258839916.1.2.3 Bus2=258839921.1.2.3 Length=47.43  units=m  Spacing=8'-ARM-NON-CENTER-POST-3PH wires=['336-ACSR-WP-18X1' '336-ACSR-WP-18X1' '336-ACSR-WP-18X1' '1/0-ACSR-B-6X1']
New Line.258851380 Phases= 2 Bus1=258851377.1.2   Bus2=258851382.1.2   Length=55.00  units=m  Spacing=8'-ARM-STANDARD-2PH wires=['6-CU-B-S' '6-CU-B-S' '2-CU-B-7']
New Line.264494197 Phases= 3 Bus1=258840047.1.2.3 Bus2=264494199.1.2.3 Length=1.53   units=m  Spacing=8'-ARM-NON-CENTER-POST-3PH wires=['336-ACSR-B-18X1' '336-ACSR-B-18X1' '336-ACSR-B-18X1' '2-CU-B-7']
New Line.258851143 Phases= 3 Bus1=258851138.1.2.3 Bus2=258851145.1.2.3 Length=44.01  units=m  Spacing=8'-ARM-NON-CENTER-POST-3PH wires=['2-ACSR-B-6X1' '2-ACSR-B-6X1' '2-ACSR-B-6X1' '1/0-ACSR-B-6X1']
New Line.263515087 Phases= 1 Bus1=263515084.3     Bus2=258851165.3     Length=74.55  units=m  Spacing=VERTICAL-1-PH-60-1PH wires=['2-ACSR-B-6X1' '2-ACSR-B-6X1']
New Line.263511685 Phases= 3 Bus1=263511682.1.2.3 Bus2=258840142.1.2.3 Length=63.23  units=m  Spacing=8'-ARM-NON-CENTER-POST-3PH wires=['2-ACSR-B-6X1' '2-ACSR-B-6X1' '2-ACSR-B-6X1' '1/0-ACSR-B-6X1']
New Line.472684220 Bus1=460932413.1.2.3 Bus2=261124309.1.2.3 LineCode=1/0-AL-TRXLPELCJ-25KV Phases= 3 Length=164.80 units=m enable=yes
New Line.263515154 Bus1=258851452.1.2.3 Bus2=263515156.1.2.3 LineCode=1/0-AL-HMWPECN-15KV Phases= 3 Length=1.53   units=m enable=yes
New Line.258840135 Phases= 3 Bus1=258840132.1.2.3 Bus2=258840137.1.2.3 Length=11.48  units=m  Spacing=8'-ARM-NON-CENTER-POST-3PH wires=['2-ACSR-B-6X1' '2-ACSR-B-6X1' '2-ACSR-B-6X1' '2-ACSR-B-6X1']
New Line.261002759 Bus1=261002756.1     Bus2=261002761.1     LineCode=1/0-AL-TRXLPELCJ-15KV Phases= 1 Length=188.10 units=m enable=yes
New Line.260784313 Bus1=260784310.3     Bus2=260784315.3     LineCode=1/0-AL-HMWPECN-15KV Phases= 1 Length=35.54  units=m enable=yes
New Line.263996176 Phases= 3 Bus1=263996173.1.2.3 Bus2=259545333.1.2.3 Length=28.84  units=m  Spacing=8'-ARM-STANDARD-3PH wires=['2-ACSR-B-6X1' '2-ACSR-B-6X1' '2-ACSR-B-6X1' '2-ACSR-B-6X1']
New Line.261002769 Bus1=261002770.1     Bus2=261002695.1     LineCode=1/0-AL-TRXLPELCJ-15KV Phases= 1 Length=75.25  units=m enable=yes
New Line.258851205 Phases= 3 Bus1=258851202.1.2.3 Bus2=258851207.1.2.3 Length=19.56  units=m  Spacing=8'-ARM-NON-CENTER-POST-3PH wires=['2-ACSR-B-6X1' '2-ACSR-B-6X1' '2-ACSR-B-6X1' '1/0-ACSR-B-6X1']
New Line.258851415 Phases= 1 Bus1=258851412.1     Bus2=258851417.1     Length=23.35  units=m  Spacing=VERTICAL-1-PH-60-1PH wires=['1/0-ACSR-WP-6X1' '2-ACSR-B-6X1']
New Line.263815490 Bus1=259312123.1     Bus2=263815492.1     LineCode=1/0-AL-TRXLPELCJ-15KV Phases= 1 Length=1.52   units=m enable=yes
New Line.258839838 Phases= 3 Bus1=258839835.1.2.3 Bus2=258839840.1.2.3 Length=90.57  units=m  Spacing=8'-ARM-NON-CENTER-POST-3PH wires=['556-AAC-B-19' '556-AAC-B-19' '556-AAC-B-19' '556-AAC-B-19']
New Line.264021669 Bus1=264021666.1.2.3 Bus2=261311161.1.2.3 LineCode=1/0-AL-TRXLPELCJ-15KV Phases= 3 Length=22.81  units=m enable=yes
New Line.263511680 Phases= 3 Bus1=258840012.1.2.3 Bus2=263511682.1.2.3 Length=1.53   units=m  Spacing=8'-ARM-NON-CENTER-POST-3PH wires=['2-ACSR-B-6X1' '2-ACSR-B-6X1' '2-ACSR-B-6X1' '1/0-ACSR-B-6X1']
New Line.263514880 Bus1=263514877.1.2.3 Bus2=260745397.1.2.3 LineCode=1/0-AL-HMWPECN-15KV Phases= 3 Length=47.38  units=m enable=yes
New Line.263730586 Bus1=259237110.2     Bus2=263730588.2     LineCode=1/0-AL-TRXLPELCJ-15KV Phases= 1 Length=1.53   units=m enable=yes
New Line.263565098 Bus1=263565095.1.2.3 Bus2=260784230.1.2.3 LineCode=1/0-AL-HMWPECN-15KV Phases= 3 Length=83.06  units=m enable=yes
New Line.258840255 Phases= 3 Bus1=258840252.1.2.3 Bus2=258840257.1.2.3 Length=55.70  units=m  Spacing=8'-ARM-NON-CENTER-POST-3PH wires=['336-ACSR-B-18X1' '336-ACSR-B-18X1' '336-ACSR-B-18X1' '2-CU-B-7']
New Line.263730564 Bus1=263730561.1     Bus2=261002746.1     LineCode=1/0-AL-TRXLPELCJ-15KV Phases= 1 Length=79.05  units=m enable=yes
New Line.258839966 Phases= 3 Bus1=258839958.1.2.3 Bus2=258839968.1.2.3 Length=34.17  units=m  Spacing=8'-ARM-NON-CENTER-POST-3PH wires=['336-ACSR-B-18X1' '336-ACSR-B-18X1' '336-ACSR-B-18X1' '1/0-ACSR-B-6X1']
New Line.258851126 Phases= 3 Bus1=258851123.1.2.3 Bus2=258851128.1.2.3 Length=64.17  units=m  Spacing=8'-ARM-NON-CENTER-POST-3PH wires=['2-ACSR-B-6X1' '2-ACSR-B-6X1' '2-ACSR-B-6X1' '2-ACSR-B-6X1']
New Line.472684357 Bus1=261124294.1.2.3 Bus2=261124288.1.2.3 LineCode=1/0-AL-TRXLPELCJ-25KV Phases= 3 Length=68.24  units=m enable=yes
New Line.460932562 Phases= 3 Bus1=460932563.1.2.3 Bus2=460932564.1.2.3 Length=26.16  units=m  Spacing=8'-ARM-NON-CENTER-POST-3PH wires=['2-ACSR-B-6X1' '2-ACSR-B-6X1' '2-ACSR-B-6X1' '2-ACSR-B-6X1']
New Line.263515069 Bus1=263515066.3     Bus2=260745417.3     LineCode=1/0-AL-HMWPECN-15KV Phases= 1 Length=67.72  units=m enable=yes
New Line.263511658 Phases= 3 Bus1=263511655.1.2.3 Bus2=258851488.1.2.3 Length=98.32  units=m  Spacing=8'-ARM-NON-CENTER-POST-3PH wires=['2-ACSR-B-6X1' '2-ACSR-B-6X1' '2-ACSR-B-6X1' '2-ACSR-B-6X1']
New Line.258850968 Phases= 3 Bus1=258850523.1.2.3 Bus2=258850970.1.2.3 Length=49.66  units=m  Spacing=8'-ARM-NON-CENTER-POST-3PH wires=['336-ACSR-WP-18X1' '336-ACSR-WP-18X1' '336-ACSR-WP-18X1' '1/0-ACSR-WP-6X1']
New Line.263515132 Phases= 2 Bus1=263515129.1.3   Bus2=258851323.1.3   Length=5.90   units=m  Spacing=8'-ARM-STANDARD-2PH wires=['6-CU-B-S' '6-CU-B-S' '6-CU-B-S']
New Line.263514907 Bus1=263514904.1.2.3 Bus2=260745346.1.2.3 LineCode=1/0-AL-TRXLPELCJ-15KV Phases= 3 Length=27.58  units=m enable=yes
New Line.258850713 Phases= 3 Bus1=258850710.1.2.3 Bus2=258850715.1.2.3 Length=45.44  units=m  Spacing=HORIZ-LINE-POST-3PH wires=['336-ACSR-B-18X1' '336-ACSR-B-18X1' '336-ACSR-B-18X1' '1/0-ACSR-B-6X1']
New Line.263515060 Bus1=263515057.2     Bus2=260745457.2     LineCode=1/0-AL-HMWPECN-15KV Phases= 1 Length=163.60 units=m enable=yes
New Line.258850683 Phases= 3 Bus1=258850675.1.2.3 Bus2=258850685.1.2.3 Length=23.36  units=m  Spacing=HORIZ-LINE-POST-3PH wires=['336-ACSR-B-18X1' '336-ACSR-B-18X1' '336-ACSR-B-18X1' '1/0-ACSR-B-6X1']
New Line.260784278 Bus1=260784275.3     Bus2=260784280.3     LineCode=1/0-AL-HMWPECN-15KV Phases= 1 Length=60.82  units=m enable=yes
New Line.472684497 Bus1=472684459.1.2.3 Bus2=472684499.1.2.3 LineCode=1/0-AL-TRXLPELCJ-25KV Phases= 3 Length=120.50 units=m enable=yes
New Line.460932489 Bus1=258840435.1.2.3 Bus2=460932491.1.2.3 LineCode=1/0-AL-HMWPECN-15KV Phases= 3 Length=1.51   units=m enable=yes
New Line.263697813 Phases= 3 Bus1=258840164.1.2.3 Bus2=263697815.1.2.3 Length=1.52   units=m  Spacing=8'-ARM-STANDARD-3PH wires=['1/0-ACSR-B-6X1' '1/0-ACSR-B-6X1' '1/0-ACSR-B-6X1' '1/0-ACSR-B-6X1']
New Line.263973875 Bus1=263973872.1.2.3 Bus2=260784240.1.2.3 LineCode=1/0-AL-HMWPECN-15KV Phases= 3 Length=106.10 units=m enable=yes
New Line.472684339 Bus1=261124288.1.2.3 Bus2=261124289.1.2.3 LineCode=1/0-AL-TRXLPELCJ-25KV Phases= 3 Length=171.30 units=m enable=yes
New Line.263730568 Bus1=259237105.1     Bus2=263730570.1     LineCode=1/0-AL-TRXLPELCJ-15KV Phases= 1 Length=1.53   units=m enable=yes
New Line.469800070 Bus1=469800067.1.2.3 Bus2=472683966.1.2.3 LineCode=1/0-AL-TRXLPELCJ-25KV Phases= 3 Length=5.98   units=m enable=yes
New Line.462745745 Bus1=258840361.1.2.3 Bus2=462745747.1.2.3 LineCode=1/0-AL-HMWPECN-15KV Phases= 3 Length=1.54   units=m enable=yes
New Line.258839924 Phases= 3 Bus1=258839921.1.2.3 Bus2=258839926.1.2.3 Length=56.94  units=m  Spacing=8'-ARM-NON-CENTER-POST-3PH wires=['336-ACSR-WP-18X1' '336-ACSR-WP-18X1' '336-ACSR-WP-18X1' '1/0-ACSR-B-6X1']
New Line.258839845 Phases= 3 Bus1=258839840.1.2.3 Bus2=258839847.1.2.3 Length=13.48  units=m  Spacing=8'-ARM-NON-CENTER-POST-3PH wires=['336-ACSR-B-18X1' '336-ACSR-B-18X1' '336-ACSR-B-18X1' '1/0-ACSR-B-6X1']
New Line.258840300 Phases= 3 Bus1=258840297.1.2.3 Bus2=258840302.1.2.3 Length=21.37  units=m  Spacing=8'-ARM-NON-CENTER-POST-3PH wires=['336-ACSR-B-18X1' '336-ACSR-B-18X1' '336-ACSR-B-18X1' '2-CU-B-7']
New Line.260784293 Bus1=260784290.3     Bus2=260784295.3     LineCode=1/0-AL-HMWPECN-15KV Phases= 1 Length=131.60 units=m enable=yes
New Line.263515033 Bus1=263515030.1     Bus2=260745412.1     LineCode=1/0-AL-HMWPECN-15KV Phases= 1 Length=25.83  units=m enable=yes
New Line.258851032 Phases= 3 Bus1=258851029.1.2.3 Bus2=258851034.1.2.3 Length=20.01  units=m  Spacing=8'-ARM-NON-CENTER-POST-3PH wires=['2-ACSR-B-6X1' '2-ACSR-B-6X1' '2-ACSR-B-6X1' '2-ACSR-B-6X1']
New Line.258839929 Phases= 3 Bus1=258839926.1.2.3 Bus2=258839931.1.2.3 Length=6.28   units=m  Spacing=8'-ARM-NON-CENTER-POST-3PH wires=['336-ACSR-WP-18X1' '336-ACSR-WP-18X1' '336-ACSR-WP-18X1' '1/0-ACSR-B-6X1']
New Line.263515064 Bus1=258851096.3     Bus2=263515066.3     LineCode=1/0-AL-HMWPECN-15KV Phases= 1 Length=1.53   units=m enable=yes
New Line.264494221 Phases= 3 Bus1=264494218.1.2.3 Bus2=258840388.1.2.3 Length=29.52  units=m  Spacing=8'-ARM-NON-CENTER-POST-3PH wires=['336-ACSR-WP-18X1' '336-ACSR-WP-18X1' '336-ACSR-WP-18X1' '1/0-ACSR-B-6X1']
New Line.260745420 Bus1=260745417.3     Bus2=260745422.3     LineCode=1/0-AL-HMWPECN-15KV Phases= 1 Length=131.10 units=m enable=yes
New Line.472684368 Bus1=460932401.1.2.3 Bus2=261124294.1.2.3 LineCode=1/0-AL-TRXLPELCJ-25KV Phases= 3 Length=326.20 units=m enable=yes
New Line.263514839 Bus1=258850623.1.2.3 Bus2=263514841.1.2.3 LineCode=1/0-AL-HMWPECN-15KV Phases= 3 Length=1.52   units=m enable=yes
New Line.263515028 Bus1=258851049.1     Bus2=263515030.1     LineCode=1/0-AL-HMWPECN-15KV Phases= 1 Length=16.83  units=m enable=yes
New Line.258840359 Phases= 3 Bus1=258840356.1.2.3 Bus2=258840361.1.2.3 Length=33.33  units=m  Spacing=8'-ARM-NON-CENTER-POST-3PH wires=['1/0-ACSR-WP-6X1' '1/0-ACSR-WP-6X1' '1/0-ACSR-WP-6X1' '1/0-ACSR-B-6X1']
New Line.261002754 Bus1=261002751.1     Bus2=261002756.1     LineCode=1/0-AL-TRXLPELCJ-15KV Phases= 1 Length=41.94  units=m enable=yes
New Line.258840364 Phases= 3 Bus1=258840365.1.2.3 Bus2=258840366.1.2.3 Length=16.75  units=m  Spacing=8'-ARM-STANDARD-3PH wires=['2-ACSR-B-6X1' '2-ACSR-B-6X1' '2-ACSR-B-6X1' '2-ACSR-B-6X1']
New Line.469544353 Phases= 3 Bus1=258850628.1.2.3 Bus2=264379499.1.2.3 Length=1.52   units=m  Spacing=HORIZ-LINE-POST-3PH wires=['336-ACSR-B-18X1' '336-ACSR-B-18X1' '336-ACSR-B-18X1' '1/0-ACSR-B-6X1']
New Line.469799526 Phases= 3 Bus1=469799524.1.2.3 Bus2=258840494.1.2.3 Length=153.40 units=m  Spacing=8'-ARM-STANDARD-3PH wires=['2-ACSR-B-6X1' '2-ACSR-B-6X1' '2-ACSR-B-6X1' '1/0-ACSR-B-6X1']
New Line.264494225 Phases= 3 Bus1=258840292.1.2.3 Bus2=264494227.1.2.3 Length=1.53   units=m  Spacing=8'-ARM-NON-CENTER-POST-3PH wires=['336-ACSR-B-18X1' '336-ACSR-B-18X1' '336-ACSR-B-18X1' '2-CU-B-7']
New Line.259583268 Phases= 3 Bus1=258850750.1.2.3 Bus2=258850754.1.2.3 Length=10.99  units=m  Spacing=8'-ARM-NON-CENTER-POST-3PH wires=['2-ACSR-B-6X1' '2-ACSR-B-6X1' '2-ACSR-B-6X1' '2-ACSR-B-6X1']
New Line.258840157 Phases= 3 Bus1=258840154.1.2.3 Bus2=258840159.1.2.3 Length=38.27  units=m  Spacing=8'-ARM-NON-CENTER-POST-3PH wires=['336-ACSR-B-18X1' '336-ACSR-B-18X1' '336-ACSR-B-18X1' '2-CU-B-7']
New Line.263514835 Bus1=263514832.1.2.3 Bus2=260745334.1.2.3 LineCode=1/0-AL-HMWPECN-15KV Phases= 3 Length=26.55  units=m enable=yes
New Line.258840396 Phases= 3 Bus1=258840397.1.2.3 Bus2=258840398.1.2.3 Length=49.24  units=m  Spacing=8'-ARM-NON-CENTER-POST-3PH wires=['336-ACSR-WP-18X1' '336-ACSR-WP-18X1' '336-ACSR-WP-18X1' '1/0-ACSR-B-6X1']
New Line.258839833 Phases= 3 Bus1=BELLHAVEN_RET_01291204.1.2.3 Bus2=258839835.1.2.3 Length=23.02  units=m  Spacing=8'-ARM-STANDARD-3PH wires=['556-AAC-B-19' '556-AAC-B-19' '556-AAC-B-19' '556-AAC-B-19']
New Line.258840544 Phases= 1 Bus1=258840541.3     Bus2=258840546.3     Length=73.95  units=m  Spacing=VERTICAL-1-PH-60-1PH wires=['2-ACSR-B-6X1' '1/0-ACSR-B-6X1']
New Line.264494216 Phases= 3 Bus1=258840272.1.2.3 Bus2=264494218.1.2.3 Length=1.53   units=m  Spacing=8'-ARM-NON-CENTER-POST-3PH wires=['336-ACSR-WP-18X1' '336-ACSR-WP-18X1' '336-ACSR-WP-18X1' '1/0-ACSR-B-6X1']
New Line.260039956 Phases= 3 Bus1=258840361.1.2.3 Bus2=258840365.1.2.3 Length=30.93  units=m  Spacing=8'-ARM-STANDARD-3PH wires=['2-ACSR-B-6X1' '2-ACSR-B-6X1' '2-ACSR-B-6X1' '2-ACSR-B-6X1']
New Line.260784283 Bus1=260784280.3     Bus2=260784285.3     LineCode=1/0-AL-HMWPECN-15KV Phases= 1 Length=73.50  units=m enable=yes
New Line.472683909 Bus1=469799524.1.2.3 Bus2=472683911.1.2.3 LineCode=1/0-AL-TRXLPELCJ-25KV Phases= 3 Length=1.54   units=m enable=yes
New Line.258839971 Phases= 3 Bus1=258839968.1.2.3 Bus2=258839973.1.2.3 Length=47.35  units=m  Spacing=8'-ARM-NON-CENTER-POST-3PH wires=['336-ACSR-B-18X1' '336-ACSR-B-18X1' '336-ACSR-B-18X1' '1/0-ACSR-B-6X1']
New Line.263565071 Bus1=263565068.3     Bus2=260784275.3     LineCode=1/0-AL-HMWPECN-15KV Phases= 1 Length=67.04  units=m enable=yes
New Line.258850653 Phases= 3 Bus1=258850650.1.2.3 Bus2=258850655.1.2.3 Length=235.00 units=m  Spacing=HORIZ-LINE-POST-3PH wires=['336-ACSR-B-18X1' '336-ACSR-B-18X1' '336-ACSR-B-18X1' '1/0-ACSR-B-6X1']
New Line.264254816 Bus1=260745442.1     Bus2=264254814.1     LineCode=1/0-AL-HMWPECN-15KV Phases= 1 Length=197.90 units=m enable=yes
New Line.258850992 Phases= 3 Bus1=258850989.1.2.3 Bus2=258850994.1.2.3 Length=18.02  units=m  Spacing=8'-ARM-NON-CENTER-POST-3PH wires=['2-ACSR-B-6X1' '2-ACSR-B-6X1' '2-ACSR-B-6X1' '2-ACSR-B-6X1']
New Line.472684462 Bus1=472683911.1.2.3 Bus2=472684459.1.2.3 LineCode=1/0-AL-TRXLPELCJ-25KV Phases= 3 Length=78.60  units=m enable=yes
New Line.258840183 Phases= 3 Bus1=258840164.1.2.3 Bus2=258840185.1.2.3 Length=95.72  units=m  Spacing=8'-ARM-NON-CENTER-POST-3PH wires=['336-ACSR-B-18X1' '336-ACSR-B-18X1' '336-ACSR-B-18X1' '2-CU-B-7']
New Line.259357187 Phases= 3 Bus1=259357188.1.2.3 Bus2=259357189.1.2.3 Length=9.74   units=m  Spacing=8'-ARM-NON-CENTER-POST-3PH wires=['1/0-ACSR-WP-6X1' '1/0-ACSR-WP-6X1' '1/0-ACSR-WP-6X1' '2-ACSR-B-6X1']
New Line.259005024 Phases= 3 Bus1=259005026.1.2.3 Bus2=259005021.1.2.3 Length=61.93  units=m  Spacing=8'-ARM-STANDARD-3PH wires=['336-ACSR-B-18X1' '336-ACSR-B-18X1' '336-ACSR-B-18X1' '1/0-ACSR-B-6X1']
New Line.258850987 Phases= 3 Bus1=258850982.1.2.3 Bus2=258850989.1.2.3 Length=60.15  units=m  Spacing=8'-ARM-NON-CENTER-POST-3PH wires=['336-ACSR-WP-18X1' '336-ACSR-WP-18X1' '336-ACSR-WP-18X1' '1/0-ACSR-WP-6X1']
New Line.261002774 Bus1=261002775.1     Bus2=261002770.1     LineCode=1/0-AL-TRXLPELCJ-15KV Phases= 1 Length=18.68  units=m enable=yes
New Line.258850915 Phases= 3 Bus1=258850912.1.2.3 Bus2=258850917.1.2.3 Length=13.01  units=m  Spacing=8'-ARM-NON-CENTER-POST-3PH wires=['2-ACSR-B-6X1' '2-ACSR-B-6X1' '2-ACSR-B-6X1' '2-ACSR-B-6X1']
New Line.258850763 Phases= 3 Bus1=258850760.1.2.3 Bus2=258850765.1.2.3 Length=4.67   units=m  Spacing=8'-ARM-NON-CENTER-POST-3PH wires=['2-ACSR-B-6X1' '2-ACSR-B-6X1' '2-ACSR-B-6X1' '2-ACSR-B-6X1']
New Line.258840354 Phases= 3 Bus1=258840351.1.2.3 Bus2=258840356.1.2.3 Length=39.84  units=m  Spacing=8'-ARM-NON-CENTER-POST-3PH wires=['1/0-ACSR-WP-6X1' '1/0-ACSR-WP-6X1' '1/0-ACSR-WP-6X1' '1/0-ACSR-B-6X1']
New Line.259371846 Phases= 1 Bus1=259371843.1     Bus2=259371848.1     Length=83.02  units=m  Spacing=VERTICAL-1-PH-104-1PH wires=['2-ACSR-B-6X1' '2-ACSR-B-6X1']
New Line.258840223 Phases= 3 Bus1=258840220.1.2.3 Bus2=258840225.1.2.3 Length=71.37  units=m  Spacing=8'-ARM-NON-CENTER-POST-3PH wires=['336-ACSR-B-18X1' '336-ACSR-B-18X1' '336-ACSR-B-18X1' '2-CU-B-7']
New Line.258839857 Phases= 3 Bus1=258839854.1.2.3 Bus2=258839859.1.2.3 Length=27.73  units=m  Spacing=8'-ARM-NON-CENTER-POST-3PH wires=['336-ACSR-B-18X1' '336-ACSR-B-18X1' '336-ACSR-B-18X1' '1/0-ACSR-B-6X1']
New Line.263514848 Phases= 3 Bus1=258850633.1.2.3 Bus2=263514850.1.2.3 Length=1.53   units=m  Spacing=8'-ARM-NON-CENTER-POST-3PH wires=['2-ACSR-B-6X1' '2-ACSR-B-6X1' '2-ACSR-B-6X1' '2-ACSR-B-6X1']
...
